16
Properties=species:S:1:pos:R:3
O -0.24284580670524109 1.2327833942844983 1.0150814919828512
C -1.3186137918140408 0.4582903813434234 0.549260932072241
C -0.9111207400119856 -0.9391237347375588 0.2313892575665191
C 0.4256683200961144 -1.0911284925137412 -0.3887951742473113
C 1.3681863443951605 0.036440977629567474 -0.17966833128171283
C 0.6178247751309319 1.3387865588853878 -0.10262064775354934
H -2.1023766080040702 0.46065918937901196 1.3197259342396628
H -1.641032220836184 0.9477144248649254 -0.40166262278910075
H -1.6719919241134895 -1.3350668019456577 -0.5058701326732326
H -1.056342919617028 -1.549861579594822 1.1583240581600198
H 0.34843110230428137 -1.2596564749102392 -1.503588888097184
H 0.9039084516609345 -2.0136551405747856 0.05396485875420014
H 1.9671057993088288 -0.05345329351127874 0.7446628054639511
H 2.08572407877681 0.12585892406081248 -1.0308866431937687
H -0.014970166927102903 1.427486977781384 -1.029269632823411
H 1.2424453063560696 2.2139246895590663 0.0699527346198192
